17

C	 0.0566270783	 1.4851232415	-0.0151325949	-0.526544
C	 0.0307910258	-0.013316426	 0.0021619652	 0.094563
C	 0.6090576886	-1.0075932628	-1.0656907299	 0.093102
O	 2.0137935096	-0.928406519	-1.2417610288	-0.449905
C	 0.0226370317	-1.9897191654	 0.0153146917	-0.299803
C	 0.6145320957	-1.0063292041	 1.1079202599	 0.151658
O	 1.9676184859	-0.9988791646	 1.4155462317	-0.447993
C	-1.1437144633	-0.9983430306	 0.0133116797	 0.418847
O	-2.337115772	-0.9886298322	 0.0271640518	-0.320608
H	 1.0848491962	 1.856324683	 0.0416528295	 0.137177
H	-0.3992077273	 1.8794896796	-0.9290856171	 0.130588
H	-0.496990189	 1.8894867738	 0.8379903192	 0.136493
H	 0.1088039327	-1.009780991	-2.040871759	 0.095875
H	 2.2941069341	-1.681287838	-1.7730065473	 0.299426
H	 0.0118367013	-3.0769102971	 0.0077405474	 0.092625
H	 0.0754535243	-0.9998989124	 2.0578811587	 0.103162
H	 2.4493339174	-0.9687713447	 0.576251022	 0.291338